LTspice 26.0.1 for Windows
Circuit: C:\Users\Hp\Documents\LTspice\Draft1 (2).net
Start Time: Thu Mar 12 23:42:41 2026
solver = Normal
Maximum thread count: 8
tnom = 27
temp = 27
method = trap
Early termination of direct N-R iteration.
Direct Newton iteration failed to find operating point.
Starting Gmin stepping
Gmin stepping failed to find operating point. Use".option gminsteps=0" to skip all Gmin stepping.
Starting source stepping with srcstepmethod=0
Source stepping succeeded in finding the operating point.

Total elapsed time: 1.264 seconds.

Files loaded:
C:\Users\Hp\Documents\LTspice\Draft1 (2).net
C:\Users\Hp\AppData\Local\LTspice\lib\sub\LTC.lib

